"diag_tracers","ocean_mod","frazil"
restart_file = ocean_frazil.res.nc
/
"prog_tracers","ocean_mod","temp"
horizontal-advection-scheme = mdfl_sweby
vertical-advection-scheme = mdfl_sweby
restart_file = ocean_temp_salt.res.nc
const_init_tracer = .false.
const_init_value = 20.0
/
"prog_tracers","ocean_mod","salt"
horizontal-advection-scheme = mdfl_sweby
vertical-advection-scheme = mdfl_sweby
restart_file = ocean_temp_salt.res.nc
const_init_tracer = .false.
const_init_value = 35.0
/
"tracer_packages","ocean_mod","ocean_age_tracer"
names = global
horizontal-advection-scheme = mdfl_sweby
vertical-advection-scheme = mdfl_sweby
restart_file = ocean_age.res.nc
const_init_tracer = .true.
const_init_value = 0.0
min_tracer_limit = 0.0
/
"namelists","ocean_mod","ocean_age_tracer/global"
slat = -90.0
nlat =  90.0
wlon =   0.0
elon = 360.0
/
# specific humidity for moist runs
 "TRACER", "atmos_mod", "sphum"
           "longname",     "specific humidity"
           "units",        "kg/kg"
           "profile_type", "fixed", "surface_value=3.e-6" /
# required by ESM
  "TRACER", "land_mod", "sphum"
           "longname",     "specific humidity"
            "units",        "kg/kg" /
# prognotic cloud scheme tracers
  "TRACER", "atmos_mod", "liq_wat"
            "longname",     "cloud liquid specific humidity"
            "units",        "kg/kg" /
  "TRACER", "atmos_mod", "ice_wat"
            "longname",     "cloud ice water specific humidity"
            "units",        "kg/kg" /
  "TRACER", "atmos_mod", "cld_amt"
            "longname",     "cloud fraction"
            "units",        "none" /
# test tracer for radon
# "TRACER", "atmos_mod", "radon"
#           "longname",     "radon test tracer"
#           "units",        "kg/kg" /
# "tracer_packages","ocean_mod","generic_cfc"
# names = _
# horizontal-advection-scheme = mdfl_sweby
# vertical-advection-scheme = mdfl_sweby
# min_tracer_limit=0.0
# ppm_hlimiter=2
# ppm_vlimiter=2
# const_init_tracer=.true.
# /
